
 Starting FDS ...

 MPI Process      0 started on ae45bcf69195

 Reading FDS input file ...


 Fire Dynamics Simulator

 Current Date     : February 26, 2025  12:36:39
 Revision         : FDS-6.9.1-0-g889da6a-release
 Revision Date    : Sun Apr 7 17:05:06 2024 -0400
 Compiler         : Intel(R) Fortran Intel(R) 64 Compiler Classic for applications running on Intel(R) 64, Version 2021.7.1 Build 20221019_000000
 Compilation Date : Apr 09, 2024 13:24:51

 Number of MPI Processes:  1

 MPI version: 3.1
 MPI library version: Intel(R) MPI Library 2021.6 for Linux* OS


 Job TITLE        : supply_exhaust_vents
 Job ID string    : supply_exhaust_vents

 Time Step:       1, Simulation Time:      0.09 s
 Time Step:       2, Simulation Time:      0.18 s
 Time Step:       3, Simulation Time:      0.28 s
 Time Step:       4, Simulation Time:      0.37 s
 Time Step:       5, Simulation Time:      0.46 s
 Time Step:       6, Simulation Time:      0.55 s
 Time Step:       7, Simulation Time:      0.65 s
 Time Step:       8, Simulation Time:      0.72 s
 Time Step:       9, Simulation Time:      0.78 s
 Time Step:      10, Simulation Time:      0.84 s
 Time Step:      20, Simulation Time:      1.17 s
 Time Step:      30, Simulation Time:      1.39 s
 Time Step:      40, Simulation Time:      1.60 s
 Time Step:      50, Simulation Time:      1.79 s
 Time Step:      60, Simulation Time:      1.98 s
 Time Step:      70, Simulation Time:      2.15 s
 Time Step:      80, Simulation Time:      2.31 s
 Time Step:      90, Simulation Time:      2.46 s
 Time Step:     100, Simulation Time:      2.61 s
 Time Step:     200, Simulation Time:      3.92 s
 Time Step:     300, Simulation Time:      5.33 s
 Time Step:     400, Simulation Time:      6.87 s
 Time Step:     500, Simulation Time:      8.58 s
 Time Step:     589, Simulation Time:     10.00 s

STOP: FDS completed successfully (CHID: supply_exhaust_vents)
